  Version,22.2;

  Timestep,4;

  LifeCycleCost:Parameters,
    Life Cycle Cost Parameters,  !- Name
    EndOfYear,               !- Discounting Convention
    ConstantDollar,          !- Inflation Approach
    0.03,                    !- Real Discount Rate
    ,                        !- Nominal Discount Rate
    ,                        !- Inflation
    ,                        !- Base Date Month
    2011,                    !- Base Date Year
    ,                        !- Service Date Month
    2011,                    !- Service Date Year
    25,                      !- Length of Study Period in Years
    ,                        !- Tax rate
    None;                    !- Depreciation Method

  LifeCycleCost:UsePriceEscalation,
    U.S. Avg  Commercial-Electricity,  !- LCC Price Escalation Name
    Electricity,             !- Resource
    2011,                    !- Escalation Start Year
    January,                 !- Escalation Start Month
    0.9838,                  !- Year 1 Escalation
    0.9730,                  !- Year 2 Escalation
    0.9632,                  !- Year 3 Escalation
    0.9611,                  !- Year 4 Escalation
    0.9571,                  !- Year 5 Escalation
    0.9553,                  !- Year 6 Escalation
    0.9539,                  !- Year 7 Escalation
    0.9521,                  !- Year 8 Escalation
    0.9546,                  !- Year 9 Escalation
    0.9550,                  !- <none>
    0.9553,                  !- <none>
    0.9564,                  !- <none>
    0.9575,                  !- <none>
    0.9596,                  !- <none>
    0.9618,                  !- <none>
    0.9614,                  !- <none>
    0.9618,                  !- <none>
    0.9618,                  !- <none>
    0.9593,                  !- <none>
    0.9589,                  !- <none>
    0.9607,                  !- <none>
    0.9625,                  !- <none>
    0.9650,                  !- <none>
    0.9708,                  !- <none>
    0.9751,                  !- <none>
    0.9762,                  !- <none>
    0.9766,                  !- <none>
    0.9766,                  !- <none>
    0.9769,                  !- <none>
    0.9773;                  !- <none>

  LifeCycleCost:UsePriceEscalation,
    U.S. Avg  Commercial-Distillate Oil,  !- LCC Price Escalation Name
    FuelOilNo1,              !- Resource
    2011,                    !- Escalation Start Year
    January,                 !- Escalation Start Month
    0.9714,                  !- Year 1 Escalation
    0.9730,                  !- Year 2 Escalation
    0.9942,                  !- Year 3 Escalation
    1.0164,                  !- Year 4 Escalation
    1.0541,                  !- Year 5 Escalation
    1.0928,                  !- Year 6 Escalation
    1.1267,                  !- Year 7 Escalation
    1.1580,                  !- Year 8 Escalation
    1.1792,                  !- Year 9 Escalation
    1.1967,                  !- <none>
    1.2200,                  !- <none>
    1.2333,                  !- <none>
    1.2566,                  !- <none>
    1.2709,                  !- <none>
    1.2826,                  !- <none>
    1.2985,                  !- <none>
    1.3102,                  !- <none>
    1.3250,                  !- <none>
    1.3261,                  !- <none>
    1.3282,                  !- <none>
    1.3324,                  !- <none>
    1.3356,                  !- <none>
    1.3431,                  !- <none>
    1.3510,                  !- <none>
    1.3568,                  !- <none>
    1.3606,                  !- <none>
    1.3637,                  !- <none>
    1.3674,                  !- <none>
    1.3706,                  !- <none>
    1.3743;                  !- <none>

  LifeCycleCost:UsePriceEscalation,
    U.S. Avg  Commercial-Residual Oil,  !- LCC Price Escalation Name
    FuelOilNo2,              !- Resource
    2011,                    !- Escalation Start Year
    January,                 !- Escalation Start Month
    0.8469,                  !- Year 1 Escalation
    0.8257,                  !- Year 2 Escalation
    0.8681,                  !- Year 3 Escalation
    0.8988,                  !- Year 4 Escalation
    0.9289,                  !- Year 5 Escalation
    0.9604,                  !- Year 6 Escalation
    0.9897,                  !- Year 7 Escalation
    1.0075,                  !- Year 8 Escalation
    1.0314,                  !- Year 9 Escalation
    1.0554,                  !- <none>
    1.0861,                  !- <none>
    1.1278,                  !- <none>
    1.1497,                  !- <none>
    1.1620,                  !- <none>
    1.1743,                  !- <none>
    1.1852,                  !- <none>
    1.1948,                  !- <none>
    1.2037,                  !- <none>
    1.2071,                  !- <none>
    1.2119,                  !- <none>
    1.2139,                  !- <none>
    1.2194,                  !- <none>
    1.2276,                  !- <none>
    1.2365,                  !- <none>
    1.2420,                  !- <none>
    1.2461,                  !- <none>
    1.2509,                  !- <none>
    1.2550,                  !- <none>
    1.2591,                  !- <none>
    1.2638;                  !- <none>

  LifeCycleCost:UsePriceEscalation,
    U.S. Avg  Commercial-Natural gas,  !- LCC Price Escalation Name
    NaturalGas,              !- Resource
    2011,                    !- Escalation Start Year
    January,                 !- Escalation Start Month
    0.9823,                  !- Year 1 Escalation
    0.9557,                  !- Year 2 Escalation
    0.9279,                  !- Year 3 Escalation
    0.9257,                  !- Year 4 Escalation
    0.9346,                  !- Year 5 Escalation
    0.9412,                  !- Year 6 Escalation
    0.9512,                  !- Year 7 Escalation
    0.9645,                  !- Year 8 Escalation
    0.9856,                  !- Year 9 Escalation
    1.0067,                  !- <none>
    1.0222,                  !- <none>
    1.0410,                  !- <none>
    1.0610,                  !- <none>
    1.0787,                  !- <none>
    1.0942,                  !- <none>
    1.1098,                  !- <none>
    1.1220,                  !- <none>
    1.1308,                  !- <none>
    1.1386,                  !- <none>
    1.1486,                  !- <none>
    1.1619,                  !- <none>
    1.1763,                  !- <none>
    1.1918,                  !- <none>
    1.2118,                  !- <none>
    1.2284,                  !- <none>
    1.2439,                  !- <none>
    1.2605,                  !- <none>
    1.2772,                  !- <none>
    1.2938,                  !- <none>
    1.3115;                  !- <none>

  LifeCycleCost:UsePriceEscalation,
    U.S. Avg  Commercial-Coal,  !- LCC Price Escalation Name
    Coal,                    !- Resource
    2011,                    !- Escalation Start Year
    January,                 !- Escalation Start Month
    0.9970,                  !- Year 1 Escalation
    1.0089,                  !- Year 2 Escalation
    1.0089,                  !- Year 3 Escalation
    0.9941,                  !- Year 4 Escalation
    0.9941,                  !- Year 5 Escalation
    1.0000,                  !- Year 6 Escalation
    1.0030,                  !- Year 7 Escalation
    1.0059,                  !- Year 8 Escalation
    1.0089,                  !- Year 9 Escalation
    1.0119,                  !- <none>
    1.0148,                  !- <none>
    1.0178,                  !- <none>
    1.0208,                  !- <none>
    1.0267,                  !- <none>
    1.0297,                  !- <none>
    1.0356,                  !- <none>
    1.0415,                  !- <none>
    1.0534,                  !- <none>
    1.0564,                  !- <none>
    1.0593,                  !- <none>
    1.0653,                  !- <none>
    1.0712,                  !- <none>
    1.0742,                  !- <none>
    1.0801,                  !- <none>
    1.0831,                  !- <none>
    1.0831,                  !- <none>
    1.0861,                  !- <none>
    1.0890,                  !- <none>
    1.0920,                  !- <none>
    1.0950;                  !- <none>

  Building,
    Maison du Savoir,        !- Name
    ,                        !- North Axis {deg}
    ,                        !- Terrain
    ,                        !- Loads Convergence Tolerance Value {W}
    ,                        !- Temperature Convergence Tolerance Value {deltaC}
    ,                        !- Solar Distribution
    ,                        !- Maximum Number of Warmup Days
    ;                        !- Minimum Number of Warmup Days

  Zone,
    TZ_Amphitheater,         !- Name
    -0,                      !- Direction of Relative North {deg}
    25.604632772265,         !- X Origin {m}
    0,                       !- Y Origin {m}
    13.5,                    !- Z Origin {m}
    ,                        !- Type
    1,                       !- Multiplier
    ,                        !- Ceiling Height {m}
    ,                        !- Volume {m3}
    ,                        !- Floor Area {m2}
    ,                        !- Zone Inside Convection Algorithm
    ,                        !- Zone Outside Convection Algorithm
    Yes;                     !- Part of Total Floor Area

  BuildingSurface:Detailed,
    Surface 2,               !- Name
    Wall,                    !- Surface Type
    Interior Wall adj exterior wall insulation,  !- Construction Name
    TZ_Amphitheater,         !- Zone Name
    ,                        !- Space Name
    Adiabatic,               !- Outside Boundary Condition
    ,                        !- Outside Boundary Condition Object
    NoSun,                   !- Sun Exposure
    NoWind,                  !- Wind Exposure
    ,                        !- View Factor to Ground
    ,                        !- Number of Vertices
    -25.604632772265,9.92481094163284,4.5,  !- X,Y,Z ==> Vertex 1 {m}
    -25.604632772265,9.92481094163283,-4.5,  !- X,Y,Z ==> Vertex 2 {m}
    -19.3293531172715,7.49240096584329,-4.5,  !- X,Y,Z ==> Vertex 3 {m}
    -4.14933052940074,1.60835429294871,-3.71498634478016e-30,  !- X,Y,Z ==> Vertex 4 {m}
    1.01254806052791e-15,2.61223326132407e-15,-9.10814904861742e-31,  !- X,Y,Z ==> Vertex 5 {m}
    1.66140685462778e-15,4.95931219264595e-15,4.5;  !- X,Y,Z ==> Vertex 6 {m}

  BuildingSurface:Detailed,
    Surface 3,               !- Name
    Wall,                    !- Surface Type
    Interior Wall adj exterior wall insulation,  !- Construction Name
    TZ_Amphitheater,         !- Zone Name
    ,                        !- Space Name
    Adiabatic,               !- Outside Boundary Condition
    ,                        !- Outside Boundary Condition Object
    NoSun,                   !- Sun Exposure
    NoWind,                  !- Wind Exposure
    ,                        !- View Factor to Ground
    ,                        !- Number of Vertices
    -20.5373606230132,23.3119957464258,4.5,  !- X,Y,Z ==> Vertex 1 {m}
    -20.5373606230132,23.3119957464258,-4.5,  !- X,Y,Z ==> Vertex 2 {m}
    -25.604632772265,9.92481094163283,-4.5,  !- X,Y,Z ==> Vertex 3 {m}
    -25.604632772265,9.92481094163284,4.5;  !- X,Y,Z ==> Vertex 4 {m}

  BuildingSurface:Detailed,
    Surface 4,               !- Name
    Wall,                    !- Surface Type
    Interior Wall adj exterior wall insulation,  !- Construction Name
    TZ_Amphitheater,         !- Zone Name
    ,                        !- Space Name
    Adiabatic,               !- Outside Boundary Condition
    ,                        !- Outside Boundary Condition Object
    NoSun,                   !- Sun Exposure
    NoWind,                  !- Wind Exposure
    ,                        !- View Factor to Ground
    ,                        !- Number of Vertices
    5.22157688639684,13.794840877959,4.5,  !- X,Y,Z ==> Vertex 1 {m}
    5.22157688639686,13.794840877959,-6.41374787714192e-29,  !- X,Y,Z ==> Vertex 2 {m}
    1.04724069117623,15.3371329087715,2.00912584103241e-28,  !- X,Y,Z ==> Vertex 3 {m}
    -14.2242634113346,20.979495664026,-4.5,  !- X,Y,Z ==> Vertex 4 {m}
    -20.5373606230132,23.3119957464258,-4.5,  !- X,Y,Z ==> Vertex 5 {m}
    -20.5373606230132,23.3119957464258,4.5;  !- X,Y,Z ==> Vertex 6 {m}

  BuildingSurface:Detailed,
    Surface 5,               !- Name
    Wall,                    !- Surface Type
    Interior Wall adj exterior wall insulation,  !- Construction Name
    TZ_Amphitheater,         !- Zone Name
    ,                        !- Space Name
    Adiabatic,               !- Outside Boundary Condition
    ,                        !- Outside Boundary Condition Object
    NoSun,                   !- Sun Exposure
    NoWind,                  !- Wind Exposure
    ,                        !- View Factor to Ground
    ,                        !- Number of Vertices
    1.60251469722693e-15,2.8015313084271e-15,4.5,  !- X,Y,Z ==> Vertex 1 {m}
    8.04823726710663e-16,1.02891150792218e-15,-2.82772601972883e-31,  !- X,Y,Z ==> Vertex 2 {m}
    5.22157688639686,13.794840877959,8.9668004004059e-33,  !- X,Y,Z ==> Vertex 3 {m}
    5.22157688639686,13.794840877959,4.5;  !- X,Y,Z ==> Vertex 4 {m}

  BuildingSurface:Detailed,
    Surface 6,               !- Name
    Roof,                    !- Surface Type
    Interior Floor adj exterior wall insulation,  !- Construction Name
    TZ_Amphitheater,         !- Zone Name
    ,                        !- Space Name
    Ground,                  !- Outside Boundary Condition
    ,                        !- Outside Boundary Condition Object
    NoSun,                   !- Sun Exposure
    NoWind,                  !- Wind Exposure
    ,                        !- View Factor to Ground
    ,                        !- Number of Vertices
    9.24491963795197e-16,3.05817419866844e-15,4.5,  !- X,Y,Z ==> Vertex 1 {m}
    5.22157688639686,13.794840877959,4.5,  !- X,Y,Z ==> Vertex 2 {m}
    -20.5373606230132,23.3119957464258,4.5,  !- X,Y,Z ==> Vertex 3 {m}
    -25.604632772265,9.92481094163284,4.5;  !- X,Y,Z ==> Vertex 4 {m}

  BuildingSurface:Detailed,
    Surface 7,               !- Name
    Floor,                   !- Surface Type
    Interior Floor adj exterior wall insulation,  !- Construction Name
    TZ_Amphitheater,         !- Zone Name
    ,                        !- Space Name
    Ground,                  !- Outside Boundary Condition
    ,                        !- Outside Boundary Condition Object
    NoSun,                   !- Sun Exposure
    NoWind,                  !- Wind Exposure
    ,                        !- View Factor to Ground
    ,                        !- Number of Vertices
    -4.14933052739876,1.60835429219093,-7.74421708719311e-09,  !- X,Y,Z ==> Vertex 1 {m}
    -19.3293531193094,7.49240096661465,-4.49999999211701,  !- X,Y,Z ==> Vertex 2 {m}
    -14.2242634092967,20.9794956632546,-4.50000000788299,  !- X,Y,Z ==> Vertex 3 {m}
    1.04724068917421,15.3371329095293,7.74421708719311e-09;  !- X,Y,Z ==> Vertex 4 {m}

  BuildingSurface:Detailed,
    Surface 8,               !- Name
    Floor,                   !- Surface Type
    Interior Floor adj exterior wall insulation,  !- Construction Name
    TZ_Amphitheater,         !- Zone Name
    ,                        !- Space Name
    Ground,                  !- Outside Boundary Condition
    ,                        !- Outside Boundary Condition Object
    NoSun,                   !- Sun Exposure
    NoWind,                  !- Wind Exposure
    ,                        !- View Factor to Ground
    ,                        !- Number of Vertices
    1.04724069117619,15.3371329087715,1.6989131068745e-31,  !- X,Y,Z ==> Vertex 1 {m}
    5.22157688639686,13.794840877959,-1.69077716358919e-31,  !- X,Y,Z ==> Vertex 2 {m}
    4.50770942932595e-16,1.16292637976415e-15,-1.21307926268108e-31,  !- X,Y,Z ==> Vertex 3 {m}
    -4.14933052940074,1.60835429294871,2.17432335515719e-31;  !- X,Y,Z ==> Vertex 4 {m}

  BuildingSurface:Detailed,
    Surface 9,               !- Name
    Floor,                   !- Surface Type
    Interior Floor adj exterior wall insulation,  !- Construction Name
    TZ_Amphitheater,         !- Zone Name
    ,                        !- Space Name
    Ground,                  !- Outside Boundary Condition
    ,                        !- Outside Boundary Condition Object
    NoSun,                   !- Sun Exposure
    NoWind,                  !- Wind Exposure
    ,                        !- View Factor to Ground
    ,                        !- Number of Vertices
    -20.5373606230132,23.3119957464258,-4.5,  !- X,Y,Z ==> Vertex 1 {m}
    -14.2242634113346,20.979495664026,-4.5,  !- X,Y,Z ==> Vertex 2 {m}
    -19.3293531172715,7.49240096584329,-4.5,  !- X,Y,Z ==> Vertex 3 {m}
    -25.604632772265,9.92481094163283,-4.5;  !- X,Y,Z ==> Vertex 4 {m}

  ZoneControl:Thermostat,
    TZ_Amphitheater Thermostat,  !- Name
    TZ_Amphitheater,         !- Zone or ZoneList Name
    TZ_Amphitheater Thermostat Schedule,  !- Control Type Schedule Name
    ThermostatSetpoint:DualSetpoint,  !- Control 1 Object Type
    Thermostat Setpoint Dual Setpoint 1,  !- Control 1 Name
    ,                        !- Control 2 Object Type
    ,                        !- Control 2 Name
    ,                        !- Control 3 Object Type
    ,                        !- Control 3 Name
    ,                        !- Control 4 Object Type
    ,                        !- Control 4 Name
    0;                       !- Temperature Difference Between Cutout And Setpoint {deltaC}

  Schedule:Compact,
    TZ_Amphitheater Thermostat Schedule,  !- Name
    TZ_Amphitheater Thermostat Schedule Type Limits,  !- Schedule Type Limits Name
    Through: 12/31,          !- Field 1
    For: AllDays,            !- Field 2
    Until: 24:00,4;          !- Field 3

  ScheduleTypeLimits,
    TZ_Amphitheater Thermostat Schedule Type Limits,  !- Name
    0,                       !- Lower Limit Value
    4,                       !- Upper Limit Value
    DISCRETE;                !- Numeric Type

  ThermostatSetpoint:DualSetpoint,
    Thermostat Setpoint Dual Setpoint 1,  !- Name
    HTG HVAC 1 adjusted by 1.1 F,  !- Heating Setpoint Temperature Schedule Name
    CLG HVAC 1 adjusted by 0 F;  !- Cooling Setpoint Temperature Schedule Name

  ScheduleTypeLimits,
    Temperature 4,           !- Name
    ,                        !- Lower Limit Value
    ,                        !- Upper Limit Value
    Continuous,              !- Numeric Type
    temperature;             !- Unit Type

  Schedule:Day:Interval,
    Schedule Day 27,         !- Name
    Temperature 4,           !- Schedule Type Limits Name
    No,                      !- Interpolate to Timestep
    07:00,                   !- Time 1
    16.6111111111111,        !- Value Until Time 1
    18:00,                   !- Time 2
    22.6111111111111,        !- Value Until Time 2
    24:00,                   !- Time 3
    16.6111111111111;        !- Value Until Time 3

  Schedule:Day:Interval,
    Schedule Day 28,         !- Name
    Temperature 4,           !- Schedule Type Limits Name
    No,                      !- Interpolate to Timestep
    24:00,                   !- Time 1
    16.6111111111111;        !- Value Until Time 1

  Schedule:Week:Daily,
    HTG HVAC 1 adjusted by 1.1 F Week Rule - Jan1-Jan4,  !- Name
    Schedule Day 27,         !- Sunday Schedule:Day Name
    Schedule Day 27,         !- Monday Schedule:Day Name
    Schedule Day 27,         !- Tuesday Schedule:Day Name
    Schedule Day 27,         !- Wednesday Schedule:Day Name
    Schedule Day 27,         !- Thursday Schedule:Day Name
    Schedule Day 27,         !- Friday Schedule:Day Name
    Schedule Day 28,         !- Saturday Schedule:Day Name
    Schedule Day 24,         !- Holiday Schedule:Day Name
    Schedule Day 25,         !- SummerDesignDay Schedule:Day Name
    Schedule Day 24,         !- WinterDesignDay Schedule:Day Name
    Schedule Day 24,         !- CustomDay1 Schedule:Day Name
    Schedule Day 24;         !- CustomDay2 Schedule:Day Name

  Schedule:Day:Interval,
    Schedule Day 26,         !- Name
    Temperature 4,           !- Schedule Type Limits Name
    No,                      !- Interpolate to Timestep
    24:00,                   !- Time 1
    16.6111111111111;        !- Value Until Time 1

  Schedule:Week:Daily,
    HTG HVAC 1 adjusted by 1.1 F Week Rule - Jan5-Jul11,  !- Name
    Schedule Day 28,         !- Sunday Schedule:Day Name
    Schedule Day 27,         !- Monday Schedule:Day Name
    Schedule Day 27,         !- Tuesday Schedule:Day Name
    Schedule Day 27,         !- Wednesday Schedule:Day Name
    Schedule Day 27,         !- Thursday Schedule:Day Name
    Schedule Day 27,         !- Friday Schedule:Day Name
    Schedule Day 28,         !- Saturday Schedule:Day Name
    Schedule Day 24,         !- Holiday Schedule:Day Name
    Schedule Day 25,         !- SummerDesignDay Schedule:Day Name
    Schedule Day 24,         !- WinterDesignDay Schedule:Day Name
    Schedule Day 24,         !- CustomDay1 Schedule:Day Name
    Schedule Day 24;         !- CustomDay2 Schedule:Day Name

  Schedule:Week:Daily,
    HTG HVAC 1 adjusted by 1.1 F Week Rule - Jul12-Jul18,  !- Name
    Schedule Day 28,         !- Sunday Schedule:Day Name
    Schedule Day 27,         !- Monday Schedule:Day Name
    Schedule Day 27,         !- Tuesday Schedule:Day Name
    Schedule Day 27,         !- Wednesday Schedule:Day Name
    Schedule Day 26,         !- Thursday Schedule:Day Name
    Schedule Day 26,         !- Friday Schedule:Day Name
    Schedule Day 26,         !- Saturday Schedule:Day Name
    Schedule Day 24,         !- Holiday Schedule:Day Name
    Schedule Day 25,         !- SummerDesignDay Schedule:Day Name
    Schedule Day 24,         !- WinterDesignDay Schedule:Day Name
    Schedule Day 24,         !- CustomDay1 Schedule:Day Name
    Schedule Day 24;         !- CustomDay2 Schedule:Day Name

  Schedule:Week:Daily,
    HTG HVAC 1 adjusted by 1.1 F Week Rule - Jul19-Sep12,  !- Name
    Schedule Day 26,         !- Sunday Schedule:Day Name
    Schedule Day 26,         !- Monday Schedule:Day Name
    Schedule Day 26,         !- Tuesday Schedule:Day Name
    Schedule Day 26,         !- Wednesday Schedule:Day Name
    Schedule Day 26,         !- Thursday Schedule:Day Name
    Schedule Day 26,         !- Friday Schedule:Day Name
    Schedule Day 26,         !- Saturday Schedule:Day Name
    Schedule Day 24,         !- Holiday Schedule:Day Name
    Schedule Day 25,         !- SummerDesignDay Schedule:Day Name
    Schedule Day 24,         !- WinterDesignDay Schedule:Day Name
    Schedule Day 24,         !- CustomDay1 Schedule:Day Name
    Schedule Day 24;         !- CustomDay2 Schedule:Day Name

  Schedule:Week:Daily,
    HTG HVAC 1 adjusted by 1.1 F Week Rule - Sep13-Sep19,  !- Name
    Schedule Day 26,         !- Sunday Schedule:Day Name
    Schedule Day 26,         !- Monday Schedule:Day Name
    Schedule Day 27,         !- Tuesday Schedule:Day Name
    Schedule Day 27,         !- Wednesday Schedule:Day Name
    Schedule Day 27,         !- Thursday Schedule:Day Name
    Schedule Day 27,         !- Friday Schedule:Day Name
    Schedule Day 28,         !- Saturday Schedule:Day Name
    Schedule Day 24,         !- Holiday Schedule:Day Name
    Schedule Day 25,         !- SummerDesignDay Schedule:Day Name
    Schedule Day 24,         !- WinterDesignDay Schedule:Day Name
    Schedule Day 24,         !- CustomDay1 Schedule:Day Name
    Schedule Day 24;         !- CustomDay2 Schedule:Day Name

  Schedule:Week:Daily,
    HTG HVAC 1 adjusted by 1.1 F Week Rule - Sep20-Dec31,  !- Name
    Schedule Day 28,         !- Sunday Schedule:Day Name
    Schedule Day 27,         !- Monday Schedule:Day Name
    Schedule Day 27,         !- Tuesday Schedule:Day Name
    Schedule Day 27,         !- Wednesday Schedule:Day Name
    Schedule Day 27,         !- Thursday Schedule:Day Name
    Schedule Day 27,         !- Friday Schedule:Day Name
    Schedule Day 28,         !- Saturday Schedule:Day Name
    Schedule Day 24,         !- Holiday Schedule:Day Name
    Schedule Day 25,         !- SummerDesignDay Schedule:Day Name
    Schedule Day 24,         !- WinterDesignDay Schedule:Day Name
    Schedule Day 24,         !- CustomDay1 Schedule:Day Name
    Schedule Day 24;         !- CustomDay2 Schedule:Day Name

  Schedule:Year,
    HTG HVAC 1 adjusted by 1.1 F,  !- Name
    Temperature 4,           !- Schedule Type Limits Name
    HTG HVAC 1 adjusted by 1.1 F Week Rule - Jan1-Jan4,  !- Schedule:Week Name 1
    1,                       !- Start Month 1
    1,                       !- Start Day 1
    1,                       !- End Month 1
    4,                       !- End Day 1
    HTG HVAC 1 adjusted by 1.1 F Week Rule - Jan5-Jul11,  !- Schedule:Week Name 2
    1,                       !- Start Month 2
    5,                       !- Start Day 2
    7,                       !- End Month 2
    11,                      !- End Day 2
    HTG HVAC 1 adjusted by 1.1 F Week Rule - Jul12-Jul18,  !- Schedule:Week Name 3
    7,                       !- Start Month 3
    12,                      !- Start Day 3
    7,                       !- End Month 3
    18,                      !- End Day 3
    HTG HVAC 1 adjusted by 1.1 F Week Rule - Jul19-Sep12,  !- Schedule:Week Name 4
    7,                       !- Start Month 4
    19,                      !- Start Day 4
    9,                       !- End Month 4
    12,                      !- End Day 4
    HTG HVAC 1 adjusted by 1.1 F Week Rule - Sep13-Sep19,  !- Schedule:Week Name 5
    9,                       !- Start Month 5
    13,                      !- Start Day 5
    9,                       !- End Month 5
    19,                      !- End Day 5
    HTG HVAC 1 adjusted by 1.1 F Week Rule - Sep20-Dec31,  !- Schedule:Week Name 6
    9,                       !- Start Month 6
    20,                      !- Start Day 6
    12,                      !- End Month 6
    31;                      !- End Day 6

  Schedule:Day:Interval,
    Schedule Day 24,         !- Name
    Temperature 4,           !- Schedule Type Limits Name
    No,                      !- Interpolate to Timestep
    07:00,                   !- Time 1
    16.6111111111111,        !- Value Until Time 1
    18:00,                   !- Time 2
    22.6111111111111,        !- Value Until Time 2
    24:00,                   !- Time 3
    16.6111111111111;        !- Value Until Time 3

  Schedule:Day:Interval,
    Schedule Day 25,         !- Name
    Temperature 4,           !- Schedule Type Limits Name
    No,                      !- Interpolate to Timestep
    24:00,                   !- Time 1
    0;                       !- Value Until Time 1

  Schedule:Day:Interval,
    Schedule Day 22,         !- Name
    Temperature 4,           !- Schedule Type Limits Name
    No,                      !- Interpolate to Timestep
    07:00,                   !- Time 1
    30,                      !- Value Until Time 1
    18:00,                   !- Time 2
    24,                      !- Value Until Time 2
    24:00,                   !- Time 3
    30;                      !- Value Until Time 3

  Schedule:Day:Interval,
    Schedule Day 23,         !- Name
    Temperature 4,           !- Schedule Type Limits Name
    No,                      !- Interpolate to Timestep
    24:00,                   !- Time 1
    30;                      !- Value Until Time 1

  Schedule:Week:Daily,
    CLG HVAC 1 adjusted by 0 F Week Rule - Jan1-Jan4,  !- Name
    Schedule Day 22,         !- Sunday Schedule:Day Name
    Schedule Day 22,         !- Monday Schedule:Day Name
    Schedule Day 22,         !- Tuesday Schedule:Day Name
    Schedule Day 22,         !- Wednesday Schedule:Day Name
    Schedule Day 22,         !- Thursday Schedule:Day Name
    Schedule Day 22,         !- Friday Schedule:Day Name
    Schedule Day 23,         !- Saturday Schedule:Day Name
    Schedule Day 19,         !- Holiday Schedule:Day Name
    Schedule Day 20,         !- SummerDesignDay Schedule:Day Name
    Schedule Day 19,         !- WinterDesignDay Schedule:Day Name
    Schedule Day 19,         !- CustomDay1 Schedule:Day Name
    Schedule Day 19;         !- CustomDay2 Schedule:Day Name

  Schedule:Day:Interval,
    Schedule Day 21,         !- Name
    Temperature 4,           !- Schedule Type Limits Name
    No,                      !- Interpolate to Timestep
    24:00,                   !- Time 1
    30;                      !- Value Until Time 1

  Schedule:Week:Daily,
    CLG HVAC 1 adjusted by 0 F Week Rule - Jan5-Jul11,  !- Name
    Schedule Day 23,         !- Sunday Schedule:Day Name
    Schedule Day 22,         !- Monday Schedule:Day Name
    Schedule Day 22,         !- Tuesday Schedule:Day Name
    Schedule Day 22,         !- Wednesday Schedule:Day Name
    Schedule Day 22,         !- Thursday Schedule:Day Name
    Schedule Day 22,         !- Friday Schedule:Day Name
    Schedule Day 23,         !- Saturday Schedule:Day Name
    Schedule Day 19,         !- Holiday Schedule:Day Name
    Schedule Day 20,         !- SummerDesignDay Schedule:Day Name
    Schedule Day 19,         !- WinterDesignDay Schedule:Day Name
    Schedule Day 19,         !- CustomDay1 Schedule:Day Name
    Schedule Day 19;         !- CustomDay2 Schedule:Day Name

  Schedule:Week:Daily,
    CLG HVAC 1 adjusted by 0 F Week Rule - Jul12-Jul18,  !- Name
    Schedule Day 23,         !- Sunday Schedule:Day Name
    Schedule Day 22,         !- Monday Schedule:Day Name
    Schedule Day 22,         !- Tuesday Schedule:Day Name
    Schedule Day 22,         !- Wednesday Schedule:Day Name
    Schedule Day 21,         !- Thursday Schedule:Day Name
    Schedule Day 21,         !- Friday Schedule:Day Name
    Schedule Day 21,         !- Saturday Schedule:Day Name